17
In_node
In	27.84	12.6774	66.8133	0.7344
O	29.2782	10.7478	67.2579	-0.4924
O	29.6322	12.1677	65.6223	-0.4924
O	29.2614	13.9602	68.1057	-0.4924
O	27.7701	12.7206	69.102	-0.4924
O	27.7848	14.4201	65.3724	-0.4924
O	26.2437	14.2899	66.9315	-0.4924
O	26.2188	11.1609	67.3533	-0.4924
O	26.6352	11.5353	65.2401	-0.4924
C	29.9637	11.1723	66.2961	0.5689
C	28.7187	13.5666	69.1512	0.5689
C	26.7843	14.8767	65.9472	0.5689
C	26.0136	10.9089	66.1491	0.5689
X	30.9318	10.6434	66.009	0.0000
X	29.0706	13.9638	70.1601	0.0000
X	26.3208	15.8559	65.5929	0.0000
X	25.2594	10.1061	65.8551	0.0000
	0	1	S
	0	2	S
	0	3	S
	0	4	S
	0	5	S
	0	6	S
	0	7	S
	0	8	S
	1	9	A
	2	9	A
	3	10	A
	4	10	A
	5	11	A
	6	11	A
	7	12	A
	8	12	A
	9	13	S
	10	14	S
	11	15	S
	12	16	S
